Pcp_File_Version=4
*** BLOCK A: BASIC INFORMATION *****************************************
Heading
Welcome to HYDRUS-1D
LUnit  TUnit  MUnit  (indicated units are obligatory for all input data)
mm
days
mmol
lWat   lChem lTemp  lSink lRoot lShort lWDep lScreen lVariabBC lEquil lInverse
 t     f     f      f     f     t      f     t       t         t         f
lSnow  lHP1   lMeteo  lVapor lActiveU lFluxes lIrrig  lDummy  lDummy  lDummy
 f       f       f       f       f       f       f       f       f       f
NMat    NLay  CosAlpha
  1       1       1
*** BLOCK B: WATER FLOW INFORMATION ************************************
MaxIt   TolTh   TolH       (maximum number of iterations and tolerances)
5000   0.0001    0.5
TopInf WLayer KodTop InitCond
 t     t      -1       t
BotInf qGWLF FreeD SeepF KodBot DrainF  hSeep
 f     f     t     f     -1      f      0
    hTab1   hTabN
    1e-005  100000
    Model   Hysteresis
      0          0
   thr     ths    Alfa      n         Ks       l
  0.061   0.399 0.00111732 1.47231    120.504     0.5 
*** BLOCK C: TIME INFORMATION ******************************************
        dt       dtMin       dtMax     DMul    DMul2  ItMin ItMax  MPL
      0.004   1.25e-005        0.04     1.3     0.7     3     7    50
      tInit        tMax
          0          50
  lPrintD  nPrintSteps tPrintInterval lEnter
     t           1           0.1       f
TPrint(1),TPrint(2),...,TPrint(MPL)
       1.00        2.00        3.00         4.00        5.00    6.00        
       7.00        8.00         9.00       10.00       11.00    12.00       
       13.00       14.00        15.00      16.00       17.00    18.00       
       19.00       20.00        21.00      22.00       23.00    24.00       
       25.00       26.00        27.00      28.00       29.00    30.00       
       31.00       32.00        33.00      34.00       35.00    36.00       
       37.00       38.00        39.00      40.00       41.00    42.00       
       43.00       44.00        45.00      46.00       47.00    48.00       
       49.00       50.00
*** END OF INPUT FILE 'SELECTOR.IN' ************************************
