Pcp_File_Version=4
*** BLOCK A: BASIC INFORMATION *****************************************
Heading
Welcome to HYDRUS-1D
LUnit  TUnit  MUnit  (indicated units are obligatory for all input data)
cm
days
-
lWat   lChem lTemp  lSink lRoot lShort lWDep lScreen lVariabBC lEquil lInverse
 t     t     f      f     f     f      f     t       t         t         f
lSnow  lHP1   lMeteo  lVapor lActiveU lFluxes lIrrig  lDummy  lDummy  lDummy
 f       f       f       f       f       t       f       f       f       f
NMat    NLay  CosAlpha
  1       1       1
*** BLOCK B: WATER FLOW INFORMATION ************************************
MaxIt   TolTh   TolH       (maximum number of iterations and tolerances)
5000    0.001    0.5
TopInf WLayer KodTop InitCond
 t     t      -1       t
BotInf qGWLF FreeD SeepF KodBot DrainF  hSeep
 f     f     t     f     -1      f      0
    hTab1   hTabN
    1e-006   10000
    Model   Hysteresis
      0          0
   thr     ths    Alfa      n         Ks       l
  0.061   0.399 0.0111732 1.47231    12.0504     0.5 
*** BLOCK C: TIME INFORMATION ******************************************
        dt       dtMin       dtMax     DMul    DMul2  ItMin ItMax  MPL
      0.004      0.0001         0.5     1.3     0.3     3     7    50
      tInit        tMax
          0          50
  lPrintD  nPrintSteps tPrintInterval lEnter
     t           1             1       f
TPrint(1),TPrint(2),...,TPrint(MPL)
          1           2           3           4           5           6 
          7           8           9          10          11          12 
         13          14          15          16          17          18 
         19          20          21          22          23          24 
         25          26          27          28          29          30 
         31          32          33          34          35          36 
         37          38          39          40          41          42 
         43          44          45          46          47          48 
         49          50 
*** BLOCK F: SOLUTE TRANSPORT INFORMATION *****************************************************
 Epsi  lUpW  lArtD lTDep    cTolA    cTolR   MaxItC    PeCr  No.Solutes  lTort   iBacter   lFiltr  nChPar
  0.5     f     f     f    1e-007    1e-007  1000        2        2       f       0        f       16
iNonEqul lWatDep lDualNEq lInitM  lInitEq lTort lDummy  lDummy  lDummy  lDummy  lCFTr
   0       f       f       f       f       f       t       f       f       f       f
     Bulk.d.     DisperL.      Frac      Mobile WC (1..NMat)
        1.5           5           1           0 
         DifW       DifG                n-th solute
 2.272e-006           0 
         Ks          Nu        Beta       Henry       SnkL1       SnkS1       SnkG1       SnkL1'      SnkS1'      SnkG1'      SnkL0       SnkS0       SnkG0        Alfa
          0           0           1           0           0           0           0           0           0           0           0           0           0           0 
         DifW       DifG                n-th solute
 2.272e-006           0 
         Ks          Nu        Beta       Henry       SnkL1       SnkS1       SnkG1       SnkL1'      SnkS1'      SnkG1'      SnkL0       SnkS0       SnkG0        Alfa
          0           0           1           0           0           0           0           0           0           0           0           0           0           0 
      kTopSolute  SolTop    kBotSolute  SolBot
         -1           0           0           0           0           0 
      tPulse
        100
*** END OF INPUT FILE 'SELECTOR.IN' ************************************
