Pcp_File_Version=4
*** BLOCK A: BASIC INFORMATION *****************************************
Heading
Welcome to HYDRUS-1D
LUnit  TUnit  MUnit  (indicated units are obligatory for all input data)
mm
days
mmol
lWat   lChem lTemp  lSink lRoot lShort lWDep lScreen lVariabBC lEquil lInverse
 t     f     f      f     f     t      f     t       t         t         f
lSnow  lHP1   lMeteo  lVapor lActiveU lFluxes lIrrig  lDummy  lDummy  lDummy
 f       f       f       f       f       f       f       f       f       f
NMat    NLay  CosAlpha
  1       1       1
*** BLOCK B: WATER FLOW INFORMATION ************************************
MaxIt   TolTh   TolH       (maximum number of iterations and tolerances)
5000   0.0001    0.5
TopInf WLayer KodTop InitCond
 t     t      -1       t
BotInf qGWLF FreeD SeepF KodBot DrainF  hSeep
 f     f     t     f     -1      f      0
    hTab1   hTabN
    1e-005  100000
    Model   Hysteresis
      0          0
   thr     ths    Alfa      n         Ks       l
  0.053   0.375 0.0035237  3.1769     6426.9     0.5 
*** BLOCK C: TIME INFORMATION ******************************************
        dt       dtMin       dtMax     DMul    DMul2  ItMin ItMax  MPL
      0.004   1.25e-005        0.04     1.3     0.7     3     7    40
      tInit        tMax
          0          10
  lPrintD  nPrintSteps tPrintInterval lEnter
     t           1           0.1       f
TPrint(1),TPrint(2),...,TPrint(MPL)
       0.25        0.50         0.75       1.00        1.25       1.50
       1.75        2.00         2.25       2.50        2.75       3.00
       3.25        3.50         3.75       4.00        4.25       4.50
       4.75        5.00         5.25       5.50        5.75       6.00
       6.25        6.50         6.75       7.00        7.25       7.50
       7.75        8.00         8.25       8.50        8.75       9.00
       9.25        9.50         9.75      10.00        
*** END OF INPUT FILE 'SELECTOR.IN' ************************************
