Pcp_File_Version=4
*** BLOCK I: ATMOSPHERIC INFORMATION  **********************************
   MaxAL                    (MaxAL = number of atmospheric data-records)
      3
 DailyVar  SinusVar  lLay  lBCCycles lInterc lDummy  lDummy  lDummy  lDummy  lDummy
       f       f       f       f       f       f       f       f       f       f
 hCritS                 (max. allowed pressure head at the soil surface)
      0
       tAtm        Prec       rSoil       rRoot      hCritA          rB          hB          ht        tTop        tBot        Ampl        cTop        cBot   RootDepth
          1           0           0           0      100000           0           0           0           0           0           0          15          15         120         120 
          2          10           0           0      100000           0           0           0           0           0           0          15          15         120         120 
         10           0           0           0      100000           0           0           0           0           0           0          15          15         120         120 
end*** END OF INPUT FILE 'ATMOSPH.IN' **********************************
