Pcp_File_Version=4
*** BLOCK A: BASIC INFORMATION *****************************************
Heading
Welcome to HYDRUS-1D
LUnit  TUnit  MUnit  (indicated units are obligatory for all input data)
cm
days
-
lWat   lChem lTemp  lSink lRoot lShort lWDep lScreen lVariabBC lEquil lInverse
 t     t     f      f     f     f      f     t       t         t         f
lSnow  lHP1   lMeteo  lVapor lActiveU lFluxes lIrrig  lDummy  lDummy  lDummy
 f       f       f       f       f       t       f       f       f       f
NMat    NLay  CosAlpha
  1       1       1
*** BLOCK B: WATER FLOW INFORMATION ************************************
MaxIt   TolTh   TolH       (maximum number of iterations and tolerances)
5000    0.001    0.5
TopInf WLayer KodTop InitCond
 t     t      -1       t
BotInf qGWLF FreeD SeepF KodBot DrainF  hSeep
 f     f     t     f     -1      f      0
    hTab1   hTabN
    1e-006   10000
    Model   Hysteresis
      0          0
   thr     ths    Alfa      n         Ks       l
  0.053   0.375 0.035237 3.1769    642.69     0.5 
*** BLOCK C: TIME INFORMATION ******************************************
        dt       dtMin       dtMax     DMul    DMul2  ItMin ItMax  MPL
      0.004      0.0001         0.5     1.3     0.3     3     7    40
      tInit        tMax
          0          10
  lPrintD  nPrintSteps tPrintInterval lEnter
     t           1             1       f
TPrint(1),TPrint(2),...,TPrint(MPL)
       0.25        0.50         0.75       1.00        1.25       1.50
       1.75        2.00         2.25       2.50        2.75       3.00
       3.25        3.50         3.75       4.00        4.25       4.50
       4.75        5.00         5.25       5.50        5.75       6.00
       6.25        6.50         6.75       7.00        7.25       7.50
       7.75        8.00         8.25       8.50        8.75       9.00
       9.25        9.50         9.75      10.00        
*** BLOCK F: SOLUTE TRANSPORT INFORMATION *****************************************************
 Epsi  lUpW  lArtD lTDep    cTolA    cTolR   MaxItC    PeCr  No.Solutes  lTort   iBacter   lFiltr  nChPar
  0.5     f     f     f    1e-007    1e-007  1000        2        2       f       0        f       16
iNonEqul lWatDep lDualNEq lInitM  lInitEq lTort lDummy  lDummy  lDummy  lDummy  lCFTr
   0       f       f       f       f       f       t       f       f       f       f
     Bulk.d.     DisperL.      Frac      Mobile WC (1..NMat)
        1.5           5           1           0 
         DifW       DifG                n-th solute
 2.272e-006           0 
         Ks          Nu        Beta       Henry       SnkL1       SnkS1       SnkG1       SnkL1'      SnkS1'      SnkG1'      SnkL0       SnkS0       SnkG0        Alfa
          0           0           1           0           0           0           0           0           0           0           0           0           0           0 
         DifW       DifG                n-th solute
 2.272e-006           0 
         Ks          Nu        Beta       Henry       SnkL1       SnkS1       SnkG1       SnkL1'      SnkS1'      SnkG1'      SnkL0       SnkS0       SnkG0        Alfa
          0           0           1           0           0           0           0           0           0           0           0           0           0           0 
      kTopSolute  SolTop    kBotSolute  SolBot
         -1           0           0           0           0           0 
      tPulse
        100
*** END OF INPUT FILE 'SELECTOR.IN' ************************************
